SOLVER= RANS
KIND_TURB_MODEL= SA
MATH_PROBLEM= DIRECT
RESTART_SOL= NO
SYSTEM_MEASUREMENTS= SI

% Flow conditions
MACH_NUMBER= 0.2
AOA= 0.0
SIDESLIP_ANGLE= 0.0
FREESTREAM_OPTION= TEMPERATURE_FS
FREESTREAM_PRESSURE= 101325.0
FREESTREAM_TEMPERATURE= 293.15
REYNOLDS_NUMBER= 5.0E6
REYNOLDS_LENGTH= 1.0

% Reference values
REF_ORIGIN_MOMENT_X= 0.0
REF_ORIGIN_MOMENT_Y= 0.0
REF_ORIGIN_MOMENT_Z= 0.0
REF_LENGTH= 1.0
REF_AREA= 1.0

% Physical models
FLUID_MODEL= STANDARD_AIR
GAMMA_VALUE= 1.4
GAS_CONSTANT= 287.058
VISCOSITY_MODEL= SUTHERLAND
MU_CONSTANT= 1.716E-5
MU_REF= 1.716E-5
MU_T_REF= 273.15
SUTHERLAND_CONSTANT= 110.4
THERMAL_CONDUCTIVITY_CONSTANT= 0.0257
PRANDTL_LAM= 0.72
PRANDTL_TURB= 0.90

% Numerical methods
NUM_METHOD_GRAD= WEIGHTED_LEAST_SQUARES
CONV_NUM_METHOD_FLOW= ROE
MUSCL_FLOW= YES
SLOPE_LIMITER_FLOW= VENKATAKRISHNAN
VENKAT_LIMITER_COEFF= 0.05
TIME_DISCRE_FLOW= EULER_IMPLICIT
TIME_DISCRE_TURB= EULER_IMPLICIT

% Time stepping
TIME_MARCHING= NO
CFL_NUMBER= 5.0
ITER= 5000

% Boundary conditions
MARKER_FAR= ( farfield )
MARKER_PYTHON_CUSTOM= ( plate )
MARKER_ISOTHERMAL= ( plate, 300.0 )

% Convergence
CONV_FIELD= (RMS_DENSITY, RMS_NU_TILDE)
CONV_RESIDUAL_MINVAL= -8
CONV_STARTITER= 10
CONV_CAUCHY_ELEMS= 100
CONV_CAUCHY_EPS= 1E-6

% Output
MESH_FILENAME= mesh_flatplate.su2
SOLUTION_FILENAME= restart_flow.dat
VOLUME_FILENAME= flow.vtu
OUTPUT_WRT_FREQ= 500
SCREEN_OUTPUT= (INNER_ITER, RMS_DENSITY, RMS_NU_TILDE, LIFT, DRAG)