%%%%%%%%%%%%%%%%%%%%%%%%%%%%%%%%%%%%%%%%%%%%%%%%%%%%%%%%%%%%%%%%%%%%%%%%%%%%%%%%
%                                                                              %
% Stable Axisymmetric Turbulent Jet Configuration                              %
%                                                                              %
%%%%%%%%%%%%%%%%%%%%%%%%%%%%%%%%%%%%%%%%%%%%%%%%%%%%%%%%%%%%%%%%%%%%%%%%%%%%%%%%

% ================= CORE SIMULATION PARAMETERS =================
SOLVER = RANS
KIND_TURB_MODEL = SST
AXISYMMETRIC = YES
MATH_PROBLEM = DIRECT
SYSTEM_MEASUREMENTS = SI
MESH_FILENAME = jet_mesh.su2
MESH_FORMAT = SU2

% ================= PHYSICAL CONDITIONS =================
MACH_NUMBER = 0.15
REYNOLDS_NUMBER = 50000.0
REYNOLDS_LENGTH = 0.01
REF_AREA = 0.00007854  % πD²/4

% ================= BOUNDARY CONDITIONS =================
MARKER_INLET = ( inlet, 300.0, 102500.0, 1.0, 0.0, 0.0 )
MARKER_OUTLET = ( outlet, 101325.0 )
MARKER_SYM = ( symmetry )
MARKER_ISOTHERMAL = ( wall, 300.0 )
MARKER_FAR = ( farfield )
MARKER_INLET_TURBULENT = ( inlet, 0.01, 3.0 )  % Tu=1%, ν_t/ν=3

% ================= NUMERICAL SCHEMES =================
NUM_METHOD_GRAD = WEIGHTED_LEAST_SQUARES
CONV_NUM_METHOD_FLOW = AUSM
CONV_NUM_METHOD_TURB = SCALAR_UPWIND

% Stabilization
MUSCL_FLOW = NO  % Start with 1st-order
SLOPE_LIMITER_FLOW = NONE
ENTROPY_FIX_COEFF = 0.2
JST_SENSOR_COEFF = (0.5, 0.1)

% ================= TIME STEPPING =================
TIME_DISCRE_FLOW = EULER_IMPLICIT
TIME_DISCRE_TURB = EULER_IMPLICIT
CFL_NUMBER = 0.3  % Ultra-low initial CFL
CFL_ADAPT = YES
CFL_ADAPT_PARAM = (0.5, 1.5, 0.3, 10.0)

% ================= MATERIAL PROPERTIES =================
FLUID_MODEL = IDEAL_GAS
GAMMA_VALUE = 1.4
GAS_CONSTANT = 287.058
VISCOSITY_MODEL = CONSTANT_VISCOSITY
MU_CONSTANT = 1.8e-5  % Slightly higher for stability

% ================= LINEAR SOLVER =================
LINEAR_SOLVER = BCGSTAB
LINEAR_SOLVER_PREC = JACOBI
LINEAR_SOLVER_ITER = 100
LINEAR_SOLVER_ERROR = 1e-3

% ================= CONVERGENCE CONTROL =================
ITER = 30000
CONV_FIELD = RMS_DENSITY
CONV_RESIDUAL_MINVAL = -4
CONV_CAUCHY_ELEMS = 100
CONV_CAUCHY_EPS = 1e-3

% ================= OUTPUT SETTINGS =================
OUTPUT_FILES = (RESTART, PARAVIEW)
VOLUME_OUTPUT = (PRIMITIVE, SPEEDSOUND)
OUTPUT_WRT_FREQ = 100
RESTART_FILENAME = restart_jet.dat
VOLUME_FILENAME = flow
HISTORY_OUTPUT = (RMS_RES, AVG_SOUNDSPEED)
SCREEN_OUTPUT = (INNER_ITER, RMS_DENSITY, AVG_SOUNDSPEED)